REMARK  11 active torsions:
REMARK  status: ('A' for Active; 'I' for Inactive)
REMARK    1  A    between atoms: O1_1  and  C6_19 
REMARK    2  A    between atoms: O4_4  and  C13_26 
REMARK    3  A    between atoms: N1_7  and  C1_14 
REMARK       I    between atoms: N1_7  and  C4_17 
REMARK    4  A    between atoms: N2_8  and  C7_20 
REMARK    5  A    between atoms: N2_8  and  C8_21 
REMARK       I    between atoms: N7_13  and  C19_32 
REMARK    6  A    between atoms: C1_14  and  C2_15 
REMARK    7  A    between atoms: C1_14  and  C6_19 
REMARK    8  A    between atoms: C2_15  and  C3_16 
REMARK    9  A    between atoms: C3_16  and  C13_26 
REMARK   10  A    between atoms: C4_17  and  C5_18 
REMARK   11  A    between atoms: C8_21  and  C14_27 
ROOT
ATOM      1  C5  UNK     1      56.273   3.062  25.132  1.00  0.00     0.032 A 
ATOM      2  C7  UNK     1      56.419   0.993  23.267  1.00  0.00     0.028 A 
ATOM      3  C9  UNK     1      55.336   2.030  25.161  1.00  0.00     0.019 A 
ATOM      4  C10 UNK     1      57.283   3.060  24.170  1.00  0.00     0.019 A 
ATOM      5  C11 UNK     1      55.409   0.995  24.229  1.00  0.00     0.030 A 
ATOM      6  C12 UNK     1      57.356   2.026  23.237  1.00  0.00     0.030 A 
ENDROOT
BRANCH   2   7
ATOM      7  N2  UNK     1      56.493  -0.052  22.323  1.00  0.00    -0.384 N 
ATOM      8  H11 UNK     1      57.248  -0.010  21.647  1.00  0.00     0.160 HD
BRANCH   7   9
ATOM      9  C8  UNK     1      55.566  -1.141  22.295  1.00  0.00     0.180 C 
BRANCH   9  10
ATOM     10  C14 UNK     1      55.925  -2.110  21.203  1.00  0.00     0.070 A 
ATOM     11  N3  UNK     1      56.521  -3.263  21.564  1.00  0.00    -0.241 NA
ATOM     12  C15 UNK     1      56.822  -4.097  20.550  1.00  0.00     0.174 A 
ATOM     13  C17 UNK     1      56.550  -3.818  19.224  1.00  0.00     0.202 A 
ATOM     14  C18 UNK     1      57.472  -5.365  20.896  1.00  0.00     0.292 A 
ATOM     15  N4  UNK     1      55.952  -2.659  18.878  1.00  0.00    -0.237 NA
ATOM     16  N6  UNK     1      56.871  -4.699  18.179  1.00  0.00    -0.043 NA
ATOM     17  C16 UNK     1      55.645  -1.814  19.886  1.00  0.00     0.147 A 
ATOM     18  C19 UNK     1      57.450  -5.828  18.483  1.00  0.00     0.703 A 
ATOM     19  N5  UNK     1      57.749  -6.168  19.800  1.00  0.00    -0.152 N 
ATOM     20  N7  UNK     1      57.803  -6.753  17.536  1.00  0.00    -0.233 N 
ATOM     21  H16 UNK     1      58.201  -7.062  19.971  1.00  0.00     0.187 HD
ATOM     22  H18 UNK     1      57.624  -6.590  16.551  1.00  0.00     0.174 HD
ATOM     23  H19 UNK     1      58.252  -7.625  17.790  1.00  0.00     0.174 HD
ATOM     24  O6  UNK     1      57.728  -5.648  22.059  1.00  0.00    -0.265 OA
ENDBRANCH   9  10
ENDBRANCH   7   9
ENDBRANCH   2   7
BRANCH   1  25
ATOM     25  C4  UNK     1      56.196   4.163  26.126  1.00  0.00     0.252 C 
ATOM     26  O2  UNK     1      55.112   4.440  26.633  1.00  0.00    -0.268 OA
ATOM     27  N1  UNK     1      57.395   4.795  26.429  1.00  0.00    -0.343 N 
ATOM     28  H6  UNK     1      58.265   4.458  26.031  1.00  0.00     0.163 HD
BRANCH  27  29
ATOM     29  C1  UNK     1      57.487   5.864  27.391  1.00  0.00     0.183 C 
BRANCH  29  30
ATOM     30  C2  UNK     1      57.731   5.357  28.817  1.00  0.00     0.046 C 
BRANCH  30  31
ATOM     31  C3  UNK     1      59.045   4.598  29.041  1.00  0.00     0.112 C 
BRANCH  31  32
ATOM     32  C13 UNK     1      59.233   4.108  30.461  1.00  0.00     0.139 C 
ATOM     33  O5  UNK     1      58.439   4.268  31.377  1.00  0.00    -0.650 OA
BRANCH  32  34
ATOM     34  O4  UNK     1      60.432   3.490  30.623  1.00  0.00    -0.776 OA
ATOM     35  H17 UNK     1      60.565   3.187  31.546  1.00  0.00     0.167 HD
ENDBRANCH  32  34
ENDBRANCH  31  32
ENDBRANCH  30  31
ENDBRANCH  29  30
BRANCH  29  36
ATOM     36  C6  UNK     1      58.540   6.835  26.898  1.00  0.00     0.163 C 
ATOM     37  O3  UNK     1      59.272   6.653  25.934  1.00  0.00    -0.648 OA
BRANCH  36  38
ATOM     38  O1  UNK     1      58.561   7.977  27.635  1.00  0.00    -0.775 OA
ATOM     39  H15 UNK     1      59.232   8.612  27.305  1.00  0.00     0.167 HD
ENDBRANCH  36  38
ENDBRANCH  29  36
ENDBRANCH  27  29
ENDBRANCH   1  25
TORSDOF 11
