REMARK  11 active torsions:
REMARK  status: ('A' for Active; 'I' for Inactive)
REMARK    1  A    between atoms: O1_1  and  C6_19 
REMARK    2  A    between atoms: O4_4  and  C13_26 
REMARK    3  A    between atoms: N1_7  and  C1_14 
REMARK       I    between atoms: N1_7  and  C4_17 
REMARK    4  A    between atoms: N2_8  and  C7_20 
REMARK    5  A    between atoms: N2_8  and  C8_21 
REMARK       I    between atoms: N7_13  and  C19_32 
REMARK    6  A    between atoms: C1_14  and  C2_15 
REMARK    7  A    between atoms: C1_14  and  C6_19 
REMARK    8  A    between atoms: C2_15  and  C3_16 
REMARK    9  A    between atoms: C3_16  and  C13_26 
REMARK   10  A    between atoms: C4_17  and  C5_18 
REMARK   11  A    between atoms: C8_21  and  C14_27 
ROOT
ATOM      1  C5  UNK     1      24.486  18.950  53.473  1.00  0.00     0.032 A 
ATOM      2  C7  UNK     1      23.832  16.243  53.636  1.00  0.00     0.028 A 
ATOM      3  C9  UNK     1      23.202  18.565  53.859  1.00  0.00     0.019 A 
ATOM      4  C10 UNK     1      25.443  17.981  53.169  1.00  0.00     0.019 A 
ATOM      5  C11 UNK     1      22.875  17.211  53.940  1.00  0.00     0.030 A 
ATOM      6  C12 UNK     1      25.116  16.628  53.250  1.00  0.00     0.030 A 
ENDROOT
BRANCH   2   7
ATOM      7  N2  UNK     1      23.502  14.874  53.718  1.00  0.00    -0.384 N 
ATOM      8  H11 UNK     1      24.234  14.209  53.491  1.00  0.00     0.160 HD
BRANCH   7   9
ATOM      9  C8  UNK     1      22.206  14.409  54.106  1.00  0.00     0.180 C 
BRANCH   9  10
ATOM     10  C14 UNK     1      22.172  12.906  54.134  1.00  0.00     0.070 A 
ATOM     11  N3  UNK     1      22.215  12.304  55.337  1.00  0.00    -0.241 NA
ATOM     12  C15 UNK     1      22.182  10.958  55.310  1.00  0.00     0.174 A 
ATOM     13  C17 UNK     1      22.109  10.220  54.143  1.00  0.00     0.202 A 
ATOM     14  C18 UNK     1      22.225  10.259  56.598  1.00  0.00     0.292 A 
ATOM     15  N4  UNK     1      22.067  10.837  52.945  1.00  0.00    -0.237 NA
ATOM     16  N6  UNK     1      22.076   8.816  54.132  1.00  0.00    -0.043 NA
ATOM     17  C16 UNK     1      22.100  12.187  52.960  1.00  0.00     0.147 A 
ATOM     18  C19 UNK     1      22.116   8.191  55.276  1.00  0.00     0.703 A 
ATOM     19  N5  UNK     1      22.188   8.878  56.485  1.00  0.00    -0.152 N 
ATOM     20  N7  UNK     1      22.089   6.824  55.370  1.00  0.00    -0.233 N 
ATOM     21  H16 UNK     1      22.216   8.333  57.342  1.00  0.00     0.187 HD
ATOM     22  H18 UNK     1      22.036   6.242  54.541  1.00  0.00     0.174 HD
ATOM     23  H19 UNK     1      22.120   6.355  56.268  1.00  0.00     0.174 HD
ATOM     24  O6  UNK     1      22.290  10.878  57.652  1.00  0.00    -0.265 OA
ENDBRANCH   9  10
ENDBRANCH   7   9
ENDBRANCH   2   7
BRANCH   1  25
ATOM     25  C4  UNK     1      24.835  20.391  53.387  1.00  0.00     0.252 C 
ATOM     26  O2  UNK     1      23.946  21.212  53.180  1.00  0.00    -0.268 OA
ATOM     27  N1  UNK     1      26.174  20.706  53.577  1.00  0.00    -0.343 N 
ATOM     28  H6  UNK     1      26.839  19.981  53.826  1.00  0.00     0.163 HD
BRANCH  27  29
ATOM     29  C1  UNK     1      26.664  22.061  53.548  1.00  0.00     0.183 C 
BRANCH  29  30
ATOM     30  C2  UNK     1      26.612  22.738  54.923  1.00  0.00     0.046 C 
BRANCH  30  31
ATOM     31  C3  UNK     1      27.476  22.098  56.017  1.00  0.00     0.112 C 
BRANCH  31  32
ATOM     32  C13 UNK     1      27.380  22.796  57.356  1.00  0.00     0.139 C 
ATOM     33  O5  UNK     1      26.688  23.775  57.599  1.00  0.00    -0.650 OA
BRANCH  32  34
ATOM     34  O4  UNK     1      28.202  22.228  58.277  1.00  0.00    -0.776 OA
ATOM     35  H17 UNK     1      28.156  22.689  59.142  1.00  0.00     0.167 HD
ENDBRANCH  32  34
ENDBRANCH  31  32
ENDBRANCH  30  31
ENDBRANCH  29  30
BRANCH  29  36
ATOM     36  C6  UNK     1      28.047  22.035  52.931  1.00  0.00     0.163 C 
ATOM     37  O3  UNK     1      28.676  21.023  52.651  1.00  0.00    -0.648 OA
BRANCH  36  38
ATOM     38  O1  UNK     1      28.512  23.286  52.678  1.00  0.00    -0.775 OA
ATOM     39  H15 UNK     1      29.401  23.269  52.263  1.00  0.00     0.167 HD
ENDBRANCH  36  38
ENDBRANCH  29  36
ENDBRANCH  27  29
ENDBRANCH   1  25
TORSDOF 11
